nax.pdb
 OpenBabel11161418533D

 44 48  0  0  1  0  0  0  0  0999 V2000
   32.6370   16.8400   62.2080 P   0  0  1  0  0  0  0  0  0  0  0  0
   33.2590   18.2940   59.7270 P   0  0  2  0  0  0  0  0  0  0  0  0
   28.0750   18.6380   61.1180 C   0  0  1  0  0  0  0  0  0  0  0  0
   33.5650   22.7470   57.8820 C   0  0  1  0  0  0  0  0  0  0  0  0
   27.0600   23.6690   59.9830 N   0  0  0  0  0  0  0  0  0  0  0  0
   32.7410   22.2660   56.7030 N   0  0  0  0  0  0  0  0  0  0  0  0
   32.9070   15.4820   61.6540 O   0  5  0  0  0  0  0  0  0  0  0  0
   31.9850   17.9460   59.1640 O   0  5  0  0  0  0  0  0  0  0  0  0
   26.1730   22.7230   60.2910 C   0  0  0  0  0  0  0  0  0  0  0  0
   28.3650   17.4800   60.1060 C   0  0  2  0  0  0  0  0  0  0  0  0
   32.8160   23.0800   59.1480 C   0  0  2  0  0  0  0  0  0  0  0  0
   32.1650   20.9590   56.6720 C   0  0  0  0  0  0  0  0  0  0  0  0
   33.1550   16.9980   63.6430 O   0  0  0  0  0  0  0  0  0  0  0  0
   27.6420   17.4480   58.9360 O   0  0  0  0  0  0  0  0  0  0  0  0
   32.1490   24.2820   59.1310 O   0  0  0  0  0  0  0  0  0  0  0  0
   34.4490   17.6510   59.1480 O   0  0  0  0  0  0  0  0  0  0  0  0
   28.1990   16.3360   61.0570 C   0  0  2  0  0  0  0  0  0  0  0  0
   34.0010   23.0550   60.1500 C   0  0  2  0  0  0  0  0  0  0  0  0
   31.4560   20.7000   55.5130 C   0  0  0  0  0  0  0  0  0  0  0  0
   26.5700   21.3770   60.5820 N   0  0  0  0  0  0  0  0  0  0  0  0
   33.4580   17.7760   61.2570 O   0  0  0  0  0  0  0  0  0  0  0  0
   26.7980   15.8990   61.1930 O   0  0  0  0  0  0  0  0  0  0  0  0
   34.8290   24.1120   60.0940 O   0  0  0  0  0  0  0  0  0  0  0  0
   27.9800   21.0950   60.5240 C   0  0  0  0  0  0  0  0  0  0  0  0
   28.7210   16.8630   62.4580 C   0  0  2  0  0  0  0  0  0  0  0  0
   34.8570   21.8210   59.7060 C   0  0  2  0  0  0  0  0  0  0  0  0
   31.2710   21.5910   54.4140 C   0  0  0  0  0  0  0  0  0  0  0  0
   28.5980   18.3260   62.3520 O   0  0  0  0  0  0  0  0  0  0  0  0
   34.4680   21.7330   58.2140 O   0  0  0  0  0  0  0  0  0  0  0  0
   28.9280   22.0780   60.2000 C   0  0  0  0  0  0  0  0  0  0  0  0
   30.0770   16.4620   62.8960 C   0  0  0  0  0  0  0  0  0  0  0  0
   34.4550   20.5700   60.3770 C   0  0  0  0  0  0  0  0  0  0  0  0
   31.9100   22.8800   54.5830 C   0  0  0  0  0  0  0  0  0  0  0  0
   31.1380   17.1680   62.1270 O   0  0  0  0  0  0  0  0  0  0  0  0
   33.6370   19.7990   59.5330 O   0  0  0  0  0  0  0  0  0  0  0  0
   28.4760   23.5040   59.8950 C   0  0  0  0  0  0  0  0  0  0  0  0
   32.6390   23.2190   55.7150 C   0  0  0  0  0  0  0  0  0  0  0  0
   29.2590   24.5080   59.5820 N   0  0  0  0  0  0  0  0  0  0  0  0
   30.8270   19.2130   55.5320 C   0  0  0  0  0  0  0  0  0  0  0  0
   30.1770   21.5080   60.2260 N   0  0  0  0  0  0  0  0  0  0  0  0
   31.0630   18.4090   56.6560 N   0  0  0  0  0  0  0  0  0  0  0  0
   30.1600   18.8600   54.5330 O   0  0  0  0  0  0  0  0  0  0  0  0
   29.9840   20.2490   60.5500 C   0  0  0  0  0  0  0  0  0  0  0  0
   28.6670   19.8900   60.7570 N   0  0  0  0  0  0  0  0  0  0  0  0
  1 21  1  6  0  0  0
  1 13  1  0  0  0  0
  2 16  2  6  0  0  0
  2 21  1  0  0  0  0
  3 44  1  6  0  0  0
  3 28  1  0  0  0  0
  4  6  1  6  0  0  0
  4 29  1  0  0  0  0
  4 11  1  0  0  0  0
  5  9  1  0  0  0  0
  7  1  2  0  0  0  0
  8  2  1  0  0  0  0
  9 20  2  0  0  0  0
 10 14  1  6  0  0  0
 10 17  1  0  0  0  0
 10  3  1  0  0  0  0
 11 15  1  6  0  0  0
 11 18  1  0  0  0  0
 12  6  1  0  0  0  0
 17 22  1  1  0  0  0
 17 25  1  0  0  0  0
 18 23  1  6  0  0  0
 19 39  1  0  0  0  0
 19 12  2  0  0  0  0
 24 20  1  0  0  0  0
 24 44  1  0  0  0  0
 25 31  1  6  0  0  0
 26 18  1  0  0  0  0
 26 32  1  1  0  0  0
 27 33  1  0  0  0  0
 27 19  1  0  0  0  0
 28 25  1  0  0  0  0
 29 26  1  0  0  0  0
 30 40  1  0  0  0  0
 30 24  2  0  0  0  0
 33 37  2  0  0  0  0
 34  1  1  0  0  0  0
 34 31  1  0  0  0  0
 35  2  1  0  0  0  0
 35 32  1  0  0  0  0
 36  5  2  0  0  0  0
 36 30  1  0  0  0  0
 37  6  1  0  0  0  0
 38 36  1  0  0  0  0
 39 41  1  0  0  0  0
 40 43  2  0  0  0  0
 42 39  2  0  0  0  0
 43 44  1  0  0  0  0
M  CHG  2   7  -1   8  -1
M  END
